// MEM file.
//
// Release 14.6 - Data2MEM P.20131013, build 3.0.10 Apr 3, 2013
// Copyright (c) 1995-2014 Xilinx, Inc.  All rights reserved.
//
// Command: data2mem -bd /media/me/storage/tmp/hello.elf -d -o m code.mem
//
//     /media/me/storage/tmp/hello.elf


// // Program header record #0, Size = 0x28, at 0x00000000 to 0x00000027.

// @00000000
//     00 80 00 B0 00 00 08 B8 00 80 00 B0 50 02 08 B8 00 80 00 B0 8C 06 08 B8 00 00 00 00 00 00 00 00
//     00 80 00 B0 64 02 08 B8


// Program header record #1, Size = 0x902, at 0x80000000 to 0x80000901.

@00000000
    00 80 00 B0 38 0A A0 31 00 80 00 B0 08 09 40 30 00 80 00 B0 48 12 20 30 00 00 00 B0 30 01 F4 B9
    00 00 00 80 00 00 00 B0 70 02 F4 B9 00 00 A3 30 00 00 00 B8 00 80 00 B0 38 0A 60 E0 E0 FF 21 30
    00 00 E1 F9 94 00 23 BE 1C 00 61 FA 00 80 00 B0 E4 08 80 30 00 80 00 B0 E8 08 60 32 00 80 00 B0
    3C 0A 60 E8 00 98 64 16 02 02 73 66 FF FF 73 32 03 18 53 16 3C 00 B2 BE 01 00 63 30 02 04 83 64
    00 80 00 B0 E4 08 84 30 00 00 84 E8 00 80 00 B0 3C 0A 60 F8 00 20 FC 99 00 00 00 80 00 80 00 B0
    3C 0A 60 E8 03 18 53 16 D4 FF 52 BE 01 00 63 30 00 00 00 B0 00 00 60 30 14 00 03 BC 00 80 00 B0
    34 0A A0 30 00 18 FC 99 00 00 00 80 01 00 60 30 00 80 00 B0 38 0A 60 F0 00 00 E1 E9 1C 00 61 EA
    08 00 0F B6 20 00 21 30 00 00 00 B0 00 00 60 30 E4 FF 21 30 20 00 03 BE 00 00 E1 F9 00 80 00 B0
    34 0A A0 30 00 80 00 B0 40 0A C0 30 00 18 FC 99 00 00 00 80 00 80 00 B0 34 0A 60 E8 28 00 03 BE
    00 00 E1 E9 00 00 00 B0 00 00 60 30 18 00 03 BC 00 80 00 B0 34 0A A0 30 00 18 FC 99 00 00 00 80
    00 00 E1 E9 08 00 0F B6 1C 00 21 30 EC FF 21 20 00 00 E1 F9 00 80 00 B0 38 0A C0 20 00 80 00 B0
    38 0A E0 20 00 38 46 06 14 00 72 BC 00 00 06 F8 04 00 C6 20 00 38 46 06 F4 FF 92 BC 00 80 00 B0
    38 0A C0 20 00 80 00 B0 58 0A E0 20 00 38 46 06 14 00 72 BC 00 00 06 F8 04 00 C6 20 00 38 46 06
    F4 FF 92 BC 00 00 00 B0 B4 00 F4 B9 00 00 00 80 00 00 00 B0 CC 06 F4 B9 00 00 00 80 00 00 C0 20
    00 00 E0 20 00 00 00 B0 40 04 F4 B9 00 00 A0 20 00 00 63 32 00 00 00 B0 E4 06 F4 B9 00 00 00 80
    00 00 00 B0 70 00 F4 B9 00 00 00 80 00 00 E1 C9 00 00 73 30 08 00 0F B6 14 00 21 20 DC FF 21 30
    1C 00 61 FA 00 00 E1 F9 20 00 C1 FA 00 00 65 12 00 00 A5 E0 60 00 A5 90 28 00 05 BE 00 00 E1 E9
    00 00 00 B0 0C 05 F4 B9 01 00 D3 32 01 00 B3 E0 60 00 A5 90 EC FF 25 BE 00 00 76 12 00 00 E1 E9
    1C 00 61 EA 20 00 C1 EA 08 00 0F B6 24 00 21 30 00 58 08 98 08 00 0F B6 00 00 00 80 08 00 0F B6
    00 00 00 80 00 00 00 B8 FC FF 21 20 01 80 00 95 80 00 08 A1 01 C0 08 94 08 00 0F B6 04 00 21 20
    FC FF 21 20 01 80 00 95 20 00 08 A1 01 C0 08 94 08 00 0F B6 04 00 21 20 E0 FF 21 30 00 00 C0 10
    1C 00 61 FA 00 00 E1 F9 00 00 00 B0 2C 00 F4 B9 00 00 65 12 00 80 00 B0 FC 08 80 E8 28 00 64 E8
    0C 00 03 BC 00 18 FC 99 00 00 A4 10 FF FF 00 B0 60 FD F4 B9 00 00 B3 10 B8 FF 21 30 38 00 81 FB
    00 80 00 B0 FC 08 80 EB 2C 00 21 FB 40 00 C1 FB 44 00 E1 FB 00 00 C5 13 00 00 26 13 00 00 00 B0
    00 00 E0 33 34 00 61 FB 3C 00 A1 FB 00 00 E1 F9 1C 00 61 FA 20 00 C1 FA 24 00 E1 FA 28 00 01 FB
    30 00 41 FB 48 00 BC 33 01 00 60 33 48 00 DC EA B4 00 16 BE 00 00 5D 13 04 00 76 E8 FF FF 63 32
    A0 00 53 BE 88 00 F6 EA 04 01 19 BC 10 00 37 BC 90 00 00 B8 FF FF 73 32 88 00 53 BC 20 00 73 30
    02 04 63 64 00 B8 63 C8 00 C8 63 88 E8 FF 23 BE 02 00 F3 30 04 00 16 EB 02 04 E7 64 FF FF D8 30
    00 98 06 89 A8 00 08 BE 00 B0 87 C8 00 B0 67 D8 C4 FF 04 BE 00 9C 7B 44 00 01 D7 E8 00 30 C3 84
    7C 00 06 BC 04 01 B7 E8 00 28 63 84 8C 00 03 BE 02 04 73 64 00 20 FC 99 00 B8 A3 C8 04 00 76 E8
    00 C0 03 8B 68 FF 38 BC 00 00 7A E8 00 B0 63 88 5C FF 23 BE FF FF 73 32 88 FF B3 BE 20 00 73 30
    88 01 3F BC 00 00 E1 E9 1C 00 61 EA 20 00 C1 EA 24 00 E1 EA 28 00 01 EB 2C 00 21 EB 30 00 41 EB
    34 00 61 EB 38 00 81 EB 3C 00 A1 EB 40 00 C1 EB 44 00 E1 EB 08 00 0F B6 48 00 21 30 00 20 FC 99
    00 00 00 80 9C FF 10 B8 04 00 76 E8 04 00 D6 F8 60 FF 10 B8 00 00 06 13 00 00 BE 10 00 20 FC 99
    00 B8 C3 C8 7C FF 10 B8 04 00 76 E8 D8 00 17 BE 02 00 D3 30 00 00 03 13 02 04 C6 64 FF FF 63 30
    00 98 E3 88 7C 00 07 BE 00 B0 86 C8 00 B0 06 D8 48 00 04 BE 00 9C 7B 44 00 01 B7 E8 00 28 A3 84
    C8 00 05 BC 04 01 B7 E8 00 28 63 84 CC 00 23 BE 02 04 73 64 00 00 BE 10 00 20 FC 99 00 B8 C3 C8
    04 00 76 E8 00 C0 63 88 84 FE 23 BC 00 00 7A E8 00 B0 63 88 78 FE 23 BC FF FF 73 32 24 FF 53 BE
    02 00 D3 30 04 00 76 E8 02 04 C6 64 00 00 03 13 FF FF 63 30 00 98 E3 88 94 FF 27 BE 00 B0 86 C8
    04 00 76 F8 8C FF 10 B8 00 00 03 13 00 00 03 13 04 00 76 F8 24 00 06 BC 00 30 FC 99 00 00 00 80
    04 00 76 E8 00 C0 63 88 24 FE 23 BC 00 00 7A E8 00 B0 63 88 18 FE 23 BC FF FF 73 32 C4 FE 53 BC
    04 00 76 E8 02 00 93 30 00 00 03 13 02 04 84 64 FF FF 63 30 00 98 A3 88 B4 FF 05 BE 00 B0 C4 C8
    B4 FF 10 B8 00 B0 04 D8 00 20 FC 99 00 00 00 80 54 FF 10 B8 04 00 76 E8 00 20 FC 99 00 B8 A3 C8
    44 FF 10 B8 04 00 76 E8 04 00 76 E8 40 00 23 BC 00 00 76 E8 3C 00 03 BC 14 00 17 BE 00 00 7A F8
    FF 7F 00 B0 7C FA F4 B9 00 00 B7 10 FF 7F 00 B0 70 FA F4 B9 00 00 B6 10 00 00 DA EA 9C FD 36 BE
    00 00 E1 E9 48 FE 10 B8 1C 00 61 EA 00 00 76 E8 00 00 56 13 E8 FF 10 B8 00 00 C3 12 00 80 00 B0
    DC 08 60 E8 E0 FF 21 30 00 00 E1 F9 FF FF 83 A8 28 00 04 BE 1C 00 61 FA 00 80 00 B0 DC 08 60 32
    00 18 FC 99 00 00 00 80 FC FF 73 E8 FF FF 83 A8 F0 FF 24 BE FC FF 73 32 00 00 E1 E9 1C 00 61 EA
    08 00 0F B6 20 00 21 30 E4 FF 21 30 00 00 E1 F9 00 00 00 B0 58 00 F4 B9 00 00 00 80 00 80 00 B0
    EC 08 A0 30 FF FF 00 B0 D4 FB F4 B9 00 00 00 80 00 00 E1 E9 00 00 60 10 08 00 0F B6 1C 00 21 30
    E4 FF 21 30 00 00 E1 F9 FF FF 00 B0 34 FC F4 B9 00 00 00 80 FF FF 00 B0 10 FC F4 B9 00 00 00 80
    00 00 E1 E9 08 00 0F B6 1C 00 21 30 E4 FF 21 30 00 00 E1 F9 FF FF 00 B0 C8 FF F4 B9 00 00 00 80
    00 00 E1 E9 08 00 0F B6 1C 00 21 30 AC FF 21 30 00 00 E1 F9 20 00 21 F8 24 00 61 F8 28 00 81 F8
    2C 00 A1 F8 30 00 C1 F8 34 00 E1 F8 38 00 01 F9 3C 00 21 F9 40 00 41 F9 00 80 00 B0 FC 09 60 30
    44 00 61 F9 48 00 81 F9 4C 00 21 FA 01 80 60 95 00 00 83 E8 04 00 A3 E8 50 00 41 FA 1C 00 61 F9
    00 20 FC 99 00 00 00 80 00 00 E1 E9 1C 00 61 E9 20 00 21 E8 01 C0 0B 94 24 00 61 E8 28 00 81 E8
    2C 00 A1 E8 30 00 C1 E8 34 00 E1 E8 38 00 01 E9 3C 00 21 E9 40 00 41 E9 44 00 61 E9 48 00 81 E9
    4C 00 21 EA 50 00 41 EA 00 00 2E B6 54 00 21 30 FF 00 C5 A4 60 40 00 B0 00 00 A0 30 E4 FF 21 30
    00 00 E1 F9 00 00 00 B0 14 00 F4 B9 00 00 00 80 00 00 E1 E9 08 00 0F B6 1C 00 21 30 08 00 85 30
    00 00 64 E8 08 00 63 A4 F8 FF 23 BC 04 00 C5 F8 08 00 0F B6 00 00 00 80 30 00 A5 60 D4 FF 21 30
    1C 00 61 FA 00 00 E1 F9 20 00 C1 FA 24 00 E1 FA 28 00 01 FB 00 80 00 B0 04 0A 65 32 04 00 73 E8
    0C 00 93 E8 00 00 A3 E8 08 00 C3 EA 01 00 84 A8 B8 00 04 BE 00 28 D6 86 14 00 93 E8 90 00 64 BE
    00 00 E0 12 18 00 10 B8 01 00 00 33 14 00 93 E8 01 B8 44 16 7C 00 B2 BE 00 00 E1 E9 04 00 97 30
    03 04 84 64 01 00 B6 A4 00 20 D3 10 41 00 D6 92 54 00 05 BE 01 00 F7 32 08 00 B3 E8 00 28 B8 84
    08 00 05 BC 0C 00 03 FB 00 98 64 C8 00 18 FC 99 04 00 A6 E8 08 00 73 E8 00 18 78 84 0C 00 23 BC
    04 00 73 E8 0C 00 03 FB 04 00 73 E8 18 00 93 E8 00 00 A3 E8 08 00 A3 E8 01 00 84 A8 14 00 04 BE
    00 00 E1 E9 88 FF 36 BE 00 C0 18 13 00 00 E1 E9 1C 00 61 EA 20 00 C1 EA 24 00 E1 EA 28 00 01 EB
    08 00 0F B6 2C 00 21 30 20 00 83 E8 FF FF 84 A8 48 FF 10 B8 00 20 D6 86 08 00 0F B6 00 00 00 80
    F8 FF 21 30 00 08 E0 D9 FF FF 60 31 02 C8 0B 94 00 00 60 31 00 C8 0B 94 FF FF 00 B0 4C F8 F4 B9
    00 00 00 80 FF FF 00 B0 14 FD F4 B9 00 00 00 80 00 08 E0 C9 08 00 0F B6 08 00 21 30 F8 FF 21 30
    00 08 E0 D9 FF FF 00 B0 6C F7 F4 B9 00 00 00 80 00 08 E0 C9 08 00 0F B6 08 00 21 30 FF FF FF FF
    00 00 00 00 FF FF FF FF 00 00 00 00 48 65 6C 6C 6F 20 57 6F 72 6C 64 0A 0D 00 00 00 0C 09 00 80
    43 00


// Program header record #2, Size = 0x12C, at 0x80000908 to 0x80000A33.

@00000908
    0C 09 00 80 00 00 00 00 00 00 00 00 00 00 00 00 00 00 00 00 00 00 00 00 00 00 00 00 00 00 00 00
    00 00 00 00 00 09 00 80 00 00 00 00 00 00 00 00 00 00 00 00 00 00 00 00 00 00 00 00 00 00 00 00
    00 00 00 00 00 00 00 00 00 00 00 00 00 00 00 00 00 00 00 00 00 00 00 00 00 00 00 00 00 00 00 00
    00 00 00 00 00 00 00 00 00 00 00 00 00 00 00 00 00 00 00 00 00 00 00 00 00 00 00 00 00 00 00 00
    00 00 00 00 00 00 00 00 00 00 00 00 00 00 00 00 00 00 00 00 00 00 00 00 00 00 00 00 00 00 00 00
    00 00 00 00 00 00 00 00 00 00 00 00 00 00 00 00 00 00 00 00 00 00 00 00 00 00 00 00 00 00 00 00
    00 00 00 00 00 00 00 00 00 00 00 00 00 00 00 00 00 00 00 00 00 00 00 00 00 00 00 00 00 00 00 00
    00 00 00 00 00 00 00 00 00 00 00 00 00 00 00 00 00 00 00 00 78 07 00 80 00 00 00 00 00 00 00 00
    00 00 20 41 FD FF FF FF 01 00 00 00 10 00 00 00 02 00 00 00 01 00 00 00 00 00 00 00 78 08 00 80
    00 00 00 00 78 08 00 80 00 00 00 00
